
     RDKit          3D

 76 79  0  0  0  0  0  0  0  0999 V2000
   -1.6333    3.1260   -0.0143 O   0  0  0  0  0  0  0  0  0  0  0  0
   -2.6368    2.8928    0.7116 C   0  0  0  0  0  0  0  0  0  0  0  0
   -3.0219    3.8898    1.7638 C   0  0  0  0  0  0  0  0  0  0  0  0
   -4.5367    3.8375    2.0670 C   0  0  0  0  0  0  0  0  0  0  0  0
   -5.3468    4.3831    0.8682 C   0  0  0  0  0  0  0  0  0  0  0  0
   -4.8409    4.7122    3.2997 C   0  0  0  0  0  0  0  0  0  0  0  0
   -4.9427    2.3734    2.3693 C   0  0  0  0  0  0  0  0  0  0  0  0
   -3.3977    1.6267    0.5559 C   0  0  0  0  0  0  0  0  0  0  0  0
   -4.4953    1.3997    1.3001 C   0  0  0  0  0  0  0  0  0  0  0  0
   -5.2242    0.1773    1.1380 N   0  0  0  0  0  0  0  0  0  0  0  0
   -4.9829   -0.7171    0.0412 C   0  0  0  0  0  0  0  0  0  0  0  0
   -5.9696   -1.8347   -0.1787 C   0  0  0  0  0  0  0  0  0  0  0  0
   -3.9006   -0.5220   -0.7558 C   0  0  0  0  0  0  0  0  0  0  0  0
   -3.5753   -1.3945   -1.9234 C   0  0  0  0  0  0  0  0  0  0  0  0
   -4.1018   -2.6860   -2.0357 O   0  0  0  0  0  0  0  0  0  0  0  0
   -3.8165   -3.5419   -3.1371 C   0  0  0  0  0  0  0  0  0  0  0  0
   -4.5308   -4.8722   -2.9547 C   0  0  0  0  0  0  0  0  0  0  0  0
   -2.7730   -0.9746   -2.8044 O   0  0  0  0  0  0  0  0  0  0  0  0
   -2.9020    0.5833   -0.4269 C   0  0  0  0  0  0  0  0  0  0  0  0
   -1.6174   -0.0313    0.0945 C   0  0  0  0  0  0  0  0  0  0  0  0
   -0.4028    0.1865   -0.5770 C   0  0  0  0  0  0  0  0  0  0  0  0
    0.7853   -0.3772   -0.0998 C   0  0  0  0  0  0  0  0  0  0  0  0
    2.2880   -0.0831   -0.9610 Cl  0  0  0  0  0  0  0  0  0  0  0  0
    0.7704   -1.1703    1.0574 C   0  0  0  0  0  0  0  0  0  0  0  0
    1.9543   -1.7368    1.5313 O   0  0  0  0  0  0  0  0  0  0  0  0
    2.7669   -1.0665    2.4873 C   0  0  0  0  0  0  0  0  0  0  0  0
    3.9914   -1.8850    2.7377 C   0  0  0  0  0  0  0  0  0  0  0  0
    5.0464   -1.9102    1.7678 N   0  0  0  0  0  0  0  0  0  0  0  0
    6.1498   -2.7654    1.9411 N   0  0  0  0  0  0  0  0  0  0  0  0
    7.2296   -2.7222    1.2110 C   0  0  0  0  0  0  0  0  0  0  0  0
    7.4299   -1.7447    0.1244 C   0  0  0  0  0  0  0  0  0  0  0  0
    8.4486   -0.7921    0.2379 C   0  0  0  0  0  0  0  0  0  0  0  0
    8.6609    0.1387   -0.7831 C   0  0  0  0  0  0  0  0  0  0  0  0
    7.8662    0.1109   -1.9473 C   0  0  0  0  0  0  0  0  0  0  0  0
    8.0550    1.0210   -2.9990 O   0  0  0  0  0  0  0  0  0  0  0  0
    8.9399    2.1345   -2.9542 C   0  0  0  0  0  0  0  0  0  0  0  0
    6.8589   -0.8603   -2.0702 C   0  0  0  0  0  0  0  0  0  0  0  0
    6.0783   -0.9036   -3.2256 O   0  0  0  0  0  0  0  0  0  0  0  0
    6.6471   -1.7877   -1.0386 C   0  0  0  0  0  0  0  0  0  0  0  0
    4.0849   -2.5647    3.7996 O   0  0  0  0  0  0  0  0  0  0  0  0
   -0.4397   -1.4029    1.7276 C   0  0  0  0  0  0  0  0  0  0  0  0
   -0.4916   -2.5101    3.2873 Br  0  0  0  0  0  0  0  0  0  0  0  0
   -1.6227   -0.8281    1.2552 C   0  0  0  0  0  0  0  0  0  0  0  0
   -2.7298    4.9107    1.4392 H   0  0  0  0  0  0  0  0  0  0  0  0
   -2.4397    3.6481    2.6764 H   0  0  0  0  0  0  0  0  0  0  0  0
   -5.1720    3.7828   -0.0488 H   0  0  0  0  0  0  0  0  0  0  0  0
   -6.4346    4.3603    1.0901 H   0  0  0  0  0  0  0  0  0  0  0  0
   -5.0581    5.4333    0.6494 H   0  0  0  0  0  0  0  0  0  0  0  0
   -5.9249    4.6834    3.5443 H   0  0  0  0  0  0  0  0  0  0  0  0
   -4.5523    5.7680    3.1073 H   0  0  0  0  0  0  0  0  0  0  0  0
   -4.2778    4.3582    4.1890 H   0  0  0  0  0  0  0  0  0  0  0  0
   -4.4831    2.0471    3.3261 H   0  0  0  0  0  0  0  0  0  0  0  0
   -6.0469    2.3117    2.4910 H   0  0  0  0  0  0  0  0  0  0  0  0
   -6.0165   -0.0204    1.7928 H   0  0  0  0  0  0  0  0  0  0  0  0
   -6.8518   -1.7192    0.4861 H   0  0  0  0  0  0  0  0  0  0  0  0
   -6.3438   -1.8219   -1.2251 H   0  0  0  0  0  0  0  0  0  0  0  0
   -5.4982   -2.8139    0.0545 H   0  0  0  0  0  0  0  0  0  0  0  0
   -2.7225   -3.7177   -3.2002 H   0  0  0  0  0  0  0  0  0  0  0  0
   -4.1629   -3.0670   -4.0787 H   0  0  0  0  0  0  0  0  0  0  0  0
   -4.2946   -5.5446   -3.8059 H   0  0  0  0  0  0  0  0  0  0  0  0
   -5.6295   -4.7106   -2.9154 H   0  0  0  0  0  0  0  0  0  0  0  0
   -4.1966   -5.3578   -2.0108 H   0  0  0  0  0  0  0  0  0  0  0  0
   -2.7059    1.1277   -1.3772 H   0  0  0  0  0  0  0  0  0  0  0  0
   -0.3777    0.7983   -1.4696 H   0  0  0  0  0  0  0  0  0  0  0  0
    3.0626   -0.0659    2.0991 H   0  0  0  0  0  0  0  0  0  0  0  0
    2.2014   -0.9305    3.4352 H   0  0  0  0  0  0  0  0  0  0  0  0
    5.0160   -1.2203    0.9853 H   0  0  0  0  0  0  0  0  0  0  0  0
    8.0517   -3.3803    1.4656 H   0  0  0  0  0  0  0  0  0  0  0  0
    9.0698   -0.7589    1.1246 H   0  0  0  0  0  0  0  0  0  0  0  0
    9.4529    0.8682   -0.6576 H   0  0  0  0  0  0  0  0  0  0  0  0
    8.8565    2.7039   -3.9046 H   0  0  0  0  0  0  0  0  0  0  0  0
    8.6671    2.8039   -2.1079 H   0  0  0  0  0  0  0  0  0  0  0  0
    9.9860    1.7880   -2.8451 H   0  0  0  0  0  0  0  0  0  0  0  0
    5.3645   -1.6121   -3.3546 H   0  0  0  0  0  0  0  0  0  0  0  0
    5.8905   -2.5518   -1.1488 H   0  0  0  0  0  0  0  0  0  0  0  0
   -2.5487   -1.0087    1.7891 H   0  0  0  0  0  0  0  0  0  0  0  0
  1  2  2  0
  2  3  1  0
  3  4  1  0
  4  5  1  0
  4  6  1  0
  4  7  1  0
  2  8  1  0
  8  9  2  0
  9 10  1  0
 10 11  1  0
 11 12  1  0
 11 13  2  0
 13 14  1  0
 14 15  1  0
 15 16  1  0
 16 17  1  0
 14 18  2  0
 13 19  1  0
 19 20  1  0
 20 21  2  0
 21 22  1  0
 22 23  1  0
 22 24  2  0
 24 25  1  0
 25 26  1  0
 26 27  1  0
 27 28  1  0
 28 29  1  0
 29 30  2  0
 30 31  1  0
 31 32  2  0
 32 33  1  0
 33 34  2  0
 34 35  1  0
 35 36  1  0
 34 37  1  0
 37 38  1  0
 37 39  2  0
 27 40  2  0
 24 41  1  0
 41 42  1  0
 41 43  2  0
  9  7  1  0
 19  8  1  0
 43 20  1  0
 39 31  1  0
  3 44  1  0
  3 45  1  0
  5 46  1  0
  5 47  1  0
  5 48  1  0
  6 49  1  0
  6 50  1  0
  6 51  1  0
  7 52  1  0
  7 53  1  0
 10 54  1  0
 12 55  1  0
 12 56  1  0
 12 57  1  0
 16 58  1  0
 16 59  1  0
 17 60  1  0
 17 61  1  0
 17 62  1  0
 19 63  1  0
 21 64  1  0
 26 65  1  0
 26 66  1  0
 28 67  1  0
 30 68  1  0
 32 69  1  0
 33 70  1  0
 36 71  1  0
 36 72  1  0
 36 73  1  0
 38 74  1  0
 39 75  1  0
 43 76  1  0
M  END
