
     RDKit          3D

 72 75  0  0  0  0  0  0  0  0999 V2000
   -1.4987    2.8824   -2.0631 O   0  0  0  0  0  0  0  0  0  0  0  0
   -2.5921    2.7618   -1.4474 C   0  0  0  0  0  0  0  0  0  0  0  0
   -3.2829    3.9985   -0.9452 C   0  0  0  0  0  0  0  0  0  0  0  0
   -4.2360    3.6849    0.2325 C   0  0  0  0  0  0  0  0  0  0  0  0
   -3.4289    3.3340    1.5054 C   0  0  0  0  0  0  0  0  0  0  0  0
   -5.0989    4.9280    0.5284 C   0  0  0  0  0  0  0  0  0  0  0  0
   -5.1585    2.5063   -0.1666 C   0  0  0  0  0  0  0  0  0  0  0  0
   -3.2026    1.4194   -1.2677 C   0  0  0  0  0  0  0  0  0  0  0  0
   -4.3872    1.2944   -0.6408 C   0  0  0  0  0  0  0  0  0  0  0  0
   -4.9903    0.0007   -0.5094 N   0  0  0  0  0  0  0  0  0  0  0  0
   -4.4486   -1.1608   -1.1551 C   0  0  0  0  0  0  0  0  0  0  0  0
   -5.2789   -2.4181   -1.1623 C   0  0  0  0  0  0  0  0  0  0  0  0
   -3.2312   -1.0923   -1.7427 C   0  0  0  0  0  0  0  0  0  0  0  0
   -2.5926   -2.2639   -2.3921 C   0  0  0  0  0  0  0  0  0  0  0  0
   -2.7350   -3.5439   -1.8438 O   0  0  0  0  0  0  0  0  0  0  0  0
   -2.0279   -4.6850   -2.3221 C   0  0  0  0  0  0  0  0  0  0  0  0
   -0.5718   -4.6403   -1.8726 C   0  0  0  0  0  0  0  0  0  0  0  0
   -1.8775   -2.0898   -3.4158 O   0  0  0  0  0  0  0  0  0  0  0  0
   -2.4097    0.1857   -1.6617 C   0  0  0  0  0  0  0  0  0  0  0  0
   -1.2640   -0.0128   -0.6879 C   0  0  0  0  0  0  0  0  0  0  0  0
   -1.5151   -0.2485    0.6762 C   0  0  0  0  0  0  0  0  0  0  0  0
   -0.4590   -0.4221    1.5749 C   0  0  0  0  0  0  0  0  0  0  0  0
   -0.8168   -0.7307    3.2678 Cl  0  0  0  0  0  0  0  0  0  0  0  0
    0.8668   -0.3590    1.1199 C   0  0  0  0  0  0  0  0  0  0  0  0
    1.9268   -0.5138    2.0142 O   0  0  0  0  0  0  0  0  0  0  0  0
    2.4255    0.5894    2.7632 C   0  0  0  0  0  0  0  0  0  0  0  0
    3.6424    0.1682    3.5226 C   0  0  0  0  0  0  0  0  0  0  0  0
    4.7666   -0.3730    2.8267 N   0  0  0  0  0  0  0  0  0  0  0  0
    5.9791   -0.5932    3.5010 N   0  0  0  0  0  0  0  0  0  0  0  0
    7.1087   -0.8670    2.9148 C   0  0  0  0  0  0  0  0  0  0  0  0
    7.3031   -0.8763    1.4476 C   0  0  0  0  0  0  0  0  0  0  0  0
    6.7985    0.1530    0.6302 C   0  0  0  0  0  0  0  0  0  0  0  0
    7.0199    0.1294   -0.7501 C   0  0  0  0  0  0  0  0  0  0  0  0
    7.7721   -0.9035   -1.3246 C   0  0  0  0  0  0  0  0  0  0  0  0
    7.9943   -0.9390   -2.6991 O   0  0  0  0  0  0  0  0  0  0  0  0
    8.3110   -1.9055   -0.5105 C   0  0  0  0  0  0  0  0  0  0  0  0
    8.0875   -1.8870    0.8693 C   0  0  0  0  0  0  0  0  0  0  0  0
    3.6879    0.3309    4.7713 O   0  0  0  0  0  0  0  0  0  0  0  0
    1.1254   -0.1445   -0.2428 C   0  0  0  0  0  0  0  0  0  0  0  0
    2.9245   -0.0755   -0.8943 Br  0  0  0  0  0  0  0  0  0  0  0  0
    0.0652    0.0297   -1.1394 C   0  0  0  0  0  0  0  0  0  0  0  0
   -3.8550    4.4343   -1.7942 H   0  0  0  0  0  0  0  0  0  0  0  0
   -2.5226    4.7488   -0.6332 H   0  0  0  0  0  0  0  0  0  0  0  0
   -2.7896    4.1905    1.8108 H   0  0  0  0  0  0  0  0  0  0  0  0
   -4.1131    3.0917    2.3480 H   0  0  0  0  0  0  0  0  0  0  0  0
   -2.7665    2.4592    1.3396 H   0  0  0  0  0  0  0  0  0  0  0  0
   -4.4568    5.7989    0.7817 H   0  0  0  0  0  0  0  0  0  0  0  0
   -5.7798    4.7345    1.3840 H   0  0  0  0  0  0  0  0  0  0  0  0
   -5.7181    5.1978   -0.3535 H   0  0  0  0  0  0  0  0  0  0  0  0
   -5.8339    2.8194   -0.9943 H   0  0  0  0  0  0  0  0  0  0  0  0
   -5.8028    2.2251    0.6973 H   0  0  0  0  0  0  0  0  0  0  0  0
   -5.9049   -0.0768   -0.0072 H   0  0  0  0  0  0  0  0  0  0  0  0
   -6.3288   -2.1961   -0.8800 H   0  0  0  0  0  0  0  0  0  0  0  0
   -5.2976   -2.8691   -2.1768 H   0  0  0  0  0  0  0  0  0  0  0  0
   -4.8703   -3.1433   -0.4280 H   0  0  0  0  0  0  0  0  0  0  0  0
   -2.5041   -5.5975   -1.9038 H   0  0  0  0  0  0  0  0  0  0  0  0
   -2.0892   -4.7401   -3.4306 H   0  0  0  0  0  0  0  0  0  0  0  0
   -0.0535   -3.7729   -2.3307 H   0  0  0  0  0  0  0  0  0  0  0  0
   -0.5184   -4.5533   -0.7678 H   0  0  0  0  0  0  0  0  0  0  0  0
   -0.0571   -5.5711   -2.1876 H   0  0  0  0  0  0  0  0  0  0  0  0
   -2.0089    0.3803   -2.6815 H   0  0  0  0  0  0  0  0  0  0  0  0
   -2.5325   -0.2941    1.0432 H   0  0  0  0  0  0  0  0  0  0  0  0
    2.7035    1.4167    2.0733 H   0  0  0  0  0  0  0  0  0  0  0  0
    1.6417    0.9574    3.4623 H   0  0  0  0  0  0  0  0  0  0  0  0
    4.6404   -0.6726    1.8329 H   0  0  0  0  0  0  0  0  0  0  0  0
    7.9573   -1.1180    3.5381 H   0  0  0  0  0  0  0  0  0  0  0  0
    6.2421    0.9779    1.0588 H   0  0  0  0  0  0  0  0  0  0  0  0
    6.6097    0.9166   -1.3709 H   0  0  0  0  0  0  0  0  0  0  0  0
    7.6163   -0.2271   -3.3122 H   0  0  0  0  0  0  0  0  0  0  0  0
    8.8975   -2.7034   -0.9487 H   0  0  0  0  0  0  0  0  0  0  0  0
    8.5148   -2.6685    1.4863 H   0  0  0  0  0  0  0  0  0  0  0  0
    0.2789    0.2035   -2.1866 H   0  0  0  0  0  0  0  0  0  0  0  0
  1  2  2  0
  2  3  1  0
  3  4  1  0
  4  5  1  0
  4  6  1  0
  4  7  1  0
  2  8  1  0
  8  9  2  0
  9 10  1  0
 10 11  1  0
 11 12  1  0
 11 13  2  0
 13 14  1  0
 14 15  1  0
 15 16  1  0
 16 17  1  0
 14 18  2  0
 13 19  1  0
 19 20  1  0
 20 21  2  0
 21 22  1  0
 22 23  1  0
 22 24  2  0
 24 25  1  0
 25 26  1  0
 26 27  1  0
 27 28  1  0
 28 29  1  0
 29 30  2  0
 30 31  1  0
 31 32  2  0
 32 33  1  0
 33 34  2  0
 34 35  1  0
 34 36  1  0
 36 37  2  0
 27 38  2  0
 24 39  1  0
 39 40  1  0
 39 41  2  0
  9  7  1  0
 19  8  1  0
 41 20  1  0
 37 31  1  0
  3 42  1  0
  3 43  1  0
  5 44  1  0
  5 45  1  0
  5 46  1  0
  6 47  1  0
  6 48  1  0
  6 49  1  0
  7 50  1  0
  7 51  1  0
 10 52  1  0
 12 53  1  0
 12 54  1  0
 12 55  1  0
 16 56  1  0
 16 57  1  0
 17 58  1  0
 17 59  1  0
 17 60  1  0
 19 61  1  0
 21 62  1  0
 26 63  1  0
 26 64  1  0
 28 65  1  0
 30 66  1  0
 32 67  1  0
 33 68  1  0
 35 69  1  0
 36 70  1  0
 37 71  1  0
 41 72  1  0
M  END
